<?xml version="1.0" encoding="UTF-8"?>
<routes>
    <vType id="car" accel="2.6" decel="4.5" sigma="0.5" length="4.3" minGap="2.5" maxSpeed="55" color="1,0,0"/>
    <vType id="suv" accel="2.3" decel="4.0" sigma="0.5" length="5.0" minGap="3.0" maxSpeed="50" color="0,1,0"/>
    <vType id="truck" accel="1.5" decel="3.0" sigma="0.5" length="12.0" minGap="3.0" maxSpeed="40" color="0,0,1"/>
    
    <!-- Circular route around the grid -->
    <route id="route1" edges="A0A1 A1B1 B1C1 C1C0 C0B0 B0A0"/>
    <route id="route2" edges="A1A2 A2B2 B2C2 C2C1 C1B1 B1A1"/>
    <route id="route3" edges="B0B1 B1B2 B2C2 C2C1 C1B1 B1B0"/>
    <route id="route4" edges="A0B0 B0C0 C0C1 C1B1 B1A1 A1A0"/>
    
    <!-- Cross routes -->
    <route id="route5" edges="A0A1 A1A2"/>
    <route id="route6" edges="A2A1 A1A0"/>
    <route id="route7" edges="C0C1 C1C2"/>
    <route id="route8" edges="C2C1 C1C0"/>
    
    <!-- 12 vehicles for better traffic -->
    <vehicle id="veh0" type="car" route="route1" depart="0" color="1,0,0"/>
    <vehicle id="veh1" type="suv" route="route2" depart="2" color="0,1,0"/>
    <vehicle id="veh2" type="car" route="route3" depart="4" color="0,0,1"/>
    <vehicle id="veh3" type="truck" route="route4" depart="6" color="1,1,0"/>
    <vehicle id="veh4" type="car" route="route5" depart="8" color="1,0,1"/>
    <vehicle id="veh5" type="suv" route="route6" depart="10" color="0,1,1"/>
    <vehicle id="veh6" type="car" route="route7" depart="12" color="0.5,0.5,0.5"/>
    <vehicle id="veh7" type="truck" route="route8" depart="14" color="1,0.5,0"/>
    <vehicle id="veh8" type="car" route="route1" depart="16" color="0.5,0,0.5"/>
    <vehicle id="veh9" type="suv" route="route2" depart="18" color="0,0.5,0.5"/>
    <vehicle id="veh10" type="car" route="route3" depart="20" color="0.8,0.2,0.2"/>
    <vehicle id="veh11" type="truck" route="route4" depart="22" color="0.2,0.8,0.2"/>
</routes>